[pytest]
markers =
    unit: isolated unit tests
    integration: tests requiring I/O or model backend
    anuga: requires ANUGA backend
    dfm: requires Delft3D-FM backend
